######################################################################################################
[Config Wireless01]
description = Two hosts communicating wirelessly
network = WirelessA
sim-time-limit = 4s


*.host*.networkLayer.arpType = "GlobalARP"

**.wlan[*].macType = "Ieee80211OldMac"
**.mac.maxQueueSize = 0
**.mac.TXOP2 = 0
**.mac.TXOP3 = 0
**.wlan[*].classifierType = "ExampleQoSClassifier"
**.mac.EDCA = true
# ping app (host[0] pinged by others)



*.host*.wlan[0].typename = "IdealWirelessNic"
*.host*.wlan[0].mac.useAck = false
*.host*.wlan[0].mac.fullDuplex = false

*.host*.wlan[0].radio.receiver.ignoreInterference = true
*.host*.wlan[0].radio.displayCommunicationRange = false
*.host*.wlan[0].radio.transmitter.communicationRange = 100m



*.host*.**.bitrate = 1Mbps

######################################################################################################
[Config Wireless20]
description = Own model
extends =Wireless01
**.constraintAreaMinX = 0m
**.constraintAreaMinY = 0m
**.constraintAreaMinZ = 0m
**.constraintAreaMaxX = 600m
**.constraintAreaMaxY = 700m
**.constraintAreaMaxZ = 0m


# mobility
**.hostB.mobilityType = "MassMobility"
**.hostB.mobility.initFromDisplayString = false
**.hostB.mobility.changeInterval = truncnormal(2s, 0.5s)
**.hostB.mobility.changeAngleBy = normal(0deg, 30deg)
**.hostB.mobility.speed = truncnormal(20mps, 8mps)
**.hostB.mobility.updateInterval = 100ms
*.visualizer.physicalLinkVisualizer.packetNameFilter = "ping*"
*.visualizer.dataLinkVisualizer.packetNameFilter = "ping*"
######################################################################################################
[Config Wireless02]
description = Setting up some animations
extends = Wireless01



*.visualizer.sceneVisualizer.descriptionFigure = "title"

*.visualizer.mediumVisualizer.displaySignals = true
*.visualizer.mediumVisualizer.signalPropagationUpdateInterval = 100ns

*.visualizer.physicalLinkVisualizer.packetNameFilter = "UDPData*"

######################################################################################################
[Config Wireless03]
description = Adding more nodes and decreasing the communication range
extends = Wireless02
network = WirelessB

*.host*.wlan[0].radio.transmitter.communicationRange = 500m
*.hostR3.numUdpApps = 1
*.hostR3.udpApp[0].typename = "UDPBasicApp"
*.hostR3.udpApp[0].destAddresses = "hostR2"
*.hostR3.udpApp[0].destPort = 5000
*.hostR3.udpApp[0].messageLength = 1B

*.hostR3.udpApp[0].sendInterval = exponential(12ms)
*.hostR3.udpApp[0].packetName = "UDPData"

*.hostR2.numUdpApps = 1
*.hostR2.udpApp[0].typename = "UDPSink"
*.hostR2.udpApp[0].localPort = 5000
*.hostR1.wlan[0].radio.displayCommunicationRange = true
*.hostR2.wlan[0].radio.displayCommunicationRange = true
*.hostR3.wlan[0].radio.displayCommunicationRange = true
#*.hostR3.numPingApps = 2
#*.hostR3.pingApp[*].destAddr = "hostR2"

#**.pingApp[0].startTime = uniform(1s,5s)
#**.pingApp[1].startTime = 5s+uniform(1s,5s)
#**.pingApp[*].printPing = true

**.*.recordScalar=true
**.*.recordVector=true

######################################################################################################
[Config Wireless04]
description = Setting up static routing
extends = Wireless03

*.host*.forwarding = true

*.configurator.config = xml("<config><interface hosts='**' address='10.0.0.x' netmask='255.255.255.0'/><autoroute metric='errorRate'/></config>")
*.configurator.optimizeRoutes = false
*.host*.routingTable.netmaskRoutes = ""

*.visualizer.dataLinkVisualizer.packetNameFilter = "UDPData*"
*.visualizer.networkRouteVisualizer.packetNameFilter = "UDPData*"

######################################################################################################
[Config Wireless05]
description = Taking interference into account
extends = Wireless04

*.host*.wlan[0].radio.receiver.ignoreInterference = false
*.host*.wlan[0].radio.transmitter.interferenceRange = 500m

*.hostA.wlan[0].radio.displayInterferenceRange = true

*.visualizer.dataLinkVisualizer.packetNameFilter = ""
*.visualizer.mediumVisualizer.displaySignals = false
######################################################################################################
[Config Wireless06]
description = Using CSMA to better utilize the medium
extends = Wireless05

*.host*.wlan[0].typename = "WirelessNic"
*.host*.wlan[0].radioType = "IdealRadio"
*.host*.wlan[0].macType = "CsmaCaMac"

######################################################################################################
[Config Wireless07]
description = Turning on ACKs in CSMA
extends = Wireless06

*.host*.wlan[0].mac.useAck = true

######################################################################################################
[Config Wireless08]
description = Modeling energy consumption
extends = Wireless07

*.host*.wlan[0].radio.energyConsumerType = "StateBasedEnergyConsumer"
*.host*.wlan[0].radio.energyConsumer.offPowerConsumption = 0mW
*.host*.wlan[0].radio.energyConsumer.sleepPowerConsumption = 1mW
*.host*.wlan[0].radio.energyConsumer.switchingPowerConsumption = 1mW
*.host*.wlan[0].radio.energyConsumer.receiverIdlePowerConsumption = 2mW
*.host*.wlan[0].radio.energyConsumer.receiverBusyPowerConsumption = 5mW
*.host*.wlan[0].radio.energyConsumer.receiverReceivingPowerConsumption = 10mW
*.host*.wlan[0].radio.energyConsumer transmitterIdlePowerConsumption = 2mW
*.host*.wlan[0].radio.energyConsumer.transmitterTransmittingPowerConsumption = 100mW

*.host*.energyStorageType = "IdealEnergyStorage"



*.visualizer.mediumVisualizer.displaySignals = false

######################################################################################################
[Config Wireless09]
description = Configuring node movements
extends = Wireless07

*.hostR2.mobilityType = "LinearMobility"
*.hostR2.mobility.speed = 100mps
*.hostR2.mobility.angle = 180deg

*.host*.wlan[0].mac.maxQueueSize = 10

*.visualizer.mobilityVisualizer.displayMovementTrail = true

######################################################################################################
[Config Wireless10]
description = Configuring ad-hoc routing (AODV)
extends = Wireless09

*.configurator.addStaticRoutes = false

*.hostType = "AODVRouter"

*.visualizer.dataLinkVisualizer.packetNameFilter = "AODV*"
######################################################################################################
[Config Wireless12]
description = Changing to a more realistic radio model
extends = Wireless10

*.mediumType = "APSKScalarRadioMedium"
*.radioMedium.backgroundNoise.power = -90dBm
*.radioMedium.mediumLimitCache.carrierFrequency = 2GHz

*.host*.wlan[0].radioType = "APSKScalarRadio"
*.host*.wlan[0].radio.carrierFrequency = 2GHz
*.host*.wlan[0].radio.bandwidth = 2MHz
*.host*.wlan[0].radio.transmitter.power = 1.4mW
*.host*.wlan[0].radio.transmitter.preambleDuration = 10us
*.host*.wlan[0].radio.transmitter.headerBitLength = 0b
*.host*.wlan[0].radio.receiver.sensitivity = -85dBm
*.host*.wlan[0].radio.receiver.energyDetection = -85dBm
*.host*.wlan[0].radio.receiver.snirThreshold = 4dB
*.host*.wlan[0].radio.receiver.rssiThreshold = -50dBm

######################################################################################################
[Config MoreDynamic]
description = some nodes are shut down trigger route changes
extends = Wireless12
# lifecycle
**.hasStatus = true

*.scenarioManager.script = xmldoc("moreDynamic.xml")
*.powerControlManager.powerControlEvents = xmldoc("powerControlEvents.xml")
######################################################################################################
[Config Wireless13]
description = Configuring a more accurate pathloss model
extends = Wireless12

*.physicalEnvironment.groundType = "FlatGround"
*.physicalEnvironment.ground.elevation = 0m

*.radioMedium.pathLossType = "TwoRayGroundReflection"

######################################################################################################
[Config Wireless14]
description = Introducing antenna gain
extends = Wireless13

*.host*.wlan[0].radio.antennaType = "ConstantGainAntenna"
*.host*.wlan[0].radio.antenna.gain = 3dB

######################################################################################################

